10
-355.5134267440
 C                 -1.09775300    1.04328200    0.89067400
 C                 -0.26863500    1.97950000    0.40704100
 H                 -0.21367200    2.20438800   -0.65304700
 C                 -1.97125500    0.27176500    0.05784900
 N                 -2.68679900   -0.37017900   -0.59871400
 H                 -1.14550500    0.82515600    1.95475200
 H                  0.37672800    2.54108200    1.07423200
 N                  1.28155500   -1.81995600    0.37429200
 N                  1.75763100   -0.96584600   -0.19761300
 O                  2.25742800   -0.05972800   -0.79722300
10
-355.5133737290
 C                 -1.07849800    1.02935100    0.88547800
 C                 -0.25621900    1.96983600    0.39846800
 H                 -0.21429400    2.20219000   -0.66058200
 C                 -1.96119600    0.26269700    0.05786500
 N                 -2.68387100   -0.37547100   -0.59454300
 H                 -1.11324200    0.80374100    1.94847900
 H                  0.39667400    2.52743100    1.06165000
 N                  1.25504400   -1.80559200    0.37061200
 N                  1.74348800   -0.95435400   -0.19507100
 O                  2.25589700   -0.05087700   -0.78789700
10
-355.5133112000
 C                 -1.05937400    1.01546500    0.88023100
 C                 -0.24262300    1.95908500    0.38999700
 H                 -0.21241900    2.19798300   -0.66798000
 C                 -1.95104300    0.25373400    0.05769200
 N                 -2.68075400   -0.38054200   -0.59066100
 H                 -1.08239800    0.78328100    1.94212300
 H                  0.41756400    2.51269500    1.04927400
 N                  1.22961300   -1.79137500    0.36743700
 N                  1.72905000   -0.94267900   -0.19239000
 O                  2.25252900   -0.04141500   -0.77879600
10
-355.5132366970
 C                 -1.04027900    1.00139000    0.87490600
 C                 -0.22804000    1.94732900    0.38164500
 H                 -0.20868300    2.19232000   -0.67518100
 C                 -1.94092700    0.24491300    0.05730000
 N                 -2.67775700   -0.38512900   -0.58711400
 H                 -1.05246200    0.76309000    1.93561800
 H                  0.43940300    2.49673600    1.03711300
 N                  1.20536400   -1.77731400    0.36489900
 N                  1.71447900   -0.93087000   -0.18954100
 O                  2.24753700   -0.03141600   -0.76998700
10
-355.5131473450
 C                 -1.02110500    0.98694300    0.86945300
 C                 -0.21276000    1.93478000    0.37343800
 H                 -0.20386500    2.18591100   -0.68207700
 C                 -1.93091800    0.23625000    0.05665800
 N                 -2.67505700   -0.38908700   -0.58392500
 H                 -1.02284600    0.74248200    1.92882900
 H                  0.46209300    2.47957100    1.02515200
 N                  1.18225100   -1.76335700    0.36312000
 N                  1.69989900   -0.91898200   -0.18650000
 O                  2.24121600   -0.02104100   -0.76153800
10
-355.5130399940
 C                 -1.00185000    0.97208700    0.86384200
 C                 -0.19696900    1.92159100    0.36538200
 H                 -0.19835500    2.17911500   -0.68861600
 C                 -1.92105600    0.22775700    0.05576300
 N                 -2.67270000   -0.39240400   -0.58107400
 H                 -0.99332000    0.72118300    1.92167600
 H                  0.48551900    2.46127800    1.01336900
 N                  1.16017100   -1.74945800    0.36213600
 N                  1.68538300   -0.90705600   -0.18326600
 O                  2.23381500   -0.01041200   -0.75347400
10
-355.5129110820
 C                 -0.98260300    0.95689200    0.85809200
 C                 -0.18071100    1.90779000    0.35747300
 H                 -0.19209800    2.17187600   -0.69482200
 C                 -1.91136800    0.21944100    0.05464000
 N                 -2.67066700   -0.39513300   -0.57851800
 H                 -0.96405300    0.69933300    1.91418700
 H                  0.50957100    2.44194000    1.00176200
 N                  1.13902800   -1.73559600    0.36189800
 N                  1.67097300   -0.89511100   -0.17986800
 O                  2.22550200    0.00042900   -0.74579500
10
-355.5127564330
 C                 -0.96347500    0.94144600    0.85223800
 C                 -0.16399100    1.89335600    0.34970300
 H                 -0.18490100    2.16399100   -0.70076100
 C                 -1.90187100    0.21128900    0.05332200
 N                 -2.66894000   -0.39733800   -0.57619900
 H                 -0.93534000    0.67720500    1.90645500
 H                  0.53410400    2.42166400    0.99035600
 N                  1.11873300   -1.72175800    0.36231300
 N                  1.65670400   -0.88315200   -0.17634600
 O                  2.21642100    0.01147600   -0.73848100
10
-355.5125709700
 C                 -0.94453900    0.92580100    0.84631300
 C                 -0.14682900    1.87827800    0.34204400
 H                 -0.17666200    2.15530500   -0.70651500
 C                 -1.89257300    0.20327600    0.05185000
 N                 -2.66752500   -0.39904800   -0.57406400
 H                 -0.90740200    0.65503000    1.89857800
 H                  0.55898300    2.40055900    0.97914900
 N                  1.09921600   -1.70794000    0.36328200
 N                  1.64261600   -0.87118500   -0.17273700
 O                  2.20669900    0.02273600   -0.73149800
10
-355.5123485630
 C                 -0.92582000    0.90996800    0.84033800
 C                 -0.12930000    1.86258300    0.33446000
 H                 -0.16752400    2.14585400   -0.71213400
 C                 -1.88349200    0.19539200    0.05026400
 N                 -2.66642400   -0.40027400   -0.57207400
 H                 -0.88021600    0.63282400    1.89059300
 H                  0.58417200    2.37864600    0.96806200
 N                  1.08040200   -1.69413000    0.36473100
 N                  1.62874700   -0.85922500   -0.16906600
 O                  2.19646500    0.03419200   -0.72480400
10
-355.5120821640
 C                 -0.90731900    0.89394500    0.83433400
 C                 -0.11151500    1.84634200    0.32692600
 H                 -0.15774500    2.13577600   -0.71763300
 C                 -1.87461900    0.18761100    0.04860600
 N                 -2.66560500   -0.40103300   -0.57021400
 H                 -0.85363300    0.61048100    1.88249800
 H                  0.60963800    2.35596400    0.95700300
 N                  1.06217700   -1.68028300    0.36660800
 N                  1.61513000   -0.84729800   -0.16535800
 O                  2.18584900    0.04580700   -0.71836800
10
-355.5117637910
 C                 -0.88902400    0.87772400    0.82832400
 C                 -0.09358900    1.82963000    0.31942300
 H                 -0.14751500    2.12513700   -0.72303800
 C                 -1.86590200    0.17987200    0.04691000
 N                 -2.66502800   -0.40132800   -0.56847200
 H                 -0.82757000    0.58797700    1.87431800
 H                  0.63522800    2.33267100    0.94591700
 N                  1.04442100   -1.66634600    0.36887100
 N                  1.60178700   -0.83542600   -0.16163700
 O                  2.17495600    0.05754000   -0.71216800
10
-355.5113841360
 C                 -0.87091600    0.86128900    0.82233200
 C                 -0.07561900    1.81250200    0.31192100
 H                 -0.13695200    2.11390700   -0.72841100
 C                 -1.85727300    0.17209300    0.04520700
 N                 -2.66467100   -0.40113300   -0.56684300
 H                 -0.80201600    0.56537900    1.86610200
 H                  0.66073400    2.30899500    0.93476200
 N                  1.02705100   -1.65228900    0.37148200
 N                  1.58873500   -0.82363100   -0.15791800
 O                  2.16385300    0.06937700   -0.70617500
10
-355.5109320570
 C                 -0.85297700    0.84463100    0.81637700
 C                 -0.05768400    1.79499300    0.30437500
 H                 -0.12612200    2.10199000   -0.73384500
 C                 -1.84866700    0.16419300    0.04352200
 N                 -2.66452800   -0.40039800   -0.56531600
 H                 -0.77701000    0.54281800    1.85792300
 H                  0.68595000    2.28516400    0.92349500
 N                  1.01001800   -1.63810900    0.37440300
 N                  1.57599700   -0.81193700   -0.15421200
 O                  2.15257400    0.08131400   -0.70035200
10
-355.5103942130
 C                 -0.83520400    0.82775300    0.81047500
 C                 -0.03983800    1.77712300    0.29673900
 H                 -0.11505700    2.08927900   -0.73943600
 C                 -1.84002800    0.15610600    0.04187000
 N                 -2.66459900   -0.39906700   -0.56387600
 H                 -0.75260600    0.52043900    1.84985600
 H                  0.71074200    2.26134500    0.91206900
 N                  0.99328900   -1.62381200    0.37759800
 N                  1.56359700   -0.80037400   -0.15052500
 O                  2.14113600    0.09335900   -0.69466100
10
-355.5097553530
 C                 -0.81760100    0.81067000    0.80463600
 C                 -0.02212800    1.75892200    0.28898900
 H                 -0.10375200    2.07568200   -0.74526000
 C                 -1.83128800    0.14776000    0.04024300
 N                 -2.66488300   -0.39710400   -0.56249600
 H                 -0.72888000    0.49837500    1.84196500
 H                  0.73496700    2.23771100    0.90048500
 N                  0.97681500   -1.60939400    0.38103600
 N                  1.55156900   -0.78898200   -0.14687000
 O                  2.12955500    0.10551200   -0.68907000
10
-355.5089984930
 C                 -0.80017700    0.79340100    0.79886200
 C                 -0.00458500    1.74043300    0.28112900
 H                 -0.09213200    2.06110700   -0.75138200
 C                 -1.82237000    0.13907400    0.03860400
 N                 -2.66538400   -0.39448000   -0.56113000
 H                 -0.70597000    0.47680500    1.83433000
 H                  0.75842400    2.21449900    0.88883400
 N                  0.96053000   -1.59482900    0.38469100
 N                  1.53996600   -0.77782500   -0.14327800
 O                  2.11783000    0.11778100   -0.68355100
10
-355.5081044560
 C                 -0.78293900    0.77596300    0.79314400
 C                  0.01277200    1.72169900    0.27317800
 H                 -0.08012100    2.04551600   -0.75783300
 C                 -1.81321500    0.12999000    0.03690200
 N                 -2.66610200   -0.39119200   -0.55972400
 H                 -0.68402700    0.45589900    1.82702400
 H                  0.78092300    2.19192600    0.87725200
 N                  0.94435900   -1.58007600    0.38854100
 N                  1.52887400   -0.76699700   -0.13978900
 O                  2.10594700    0.13018100   -0.67807700
10
-355.5070514120
 C                 -0.76589400    0.75836700    0.78746000
 C                  0.02993100    1.70277500    0.26516800
 H                 -0.06769600    2.02897400   -0.76459500
 C                 -1.80380900    0.12049600    0.03508400
 N                 -2.66702200   -0.38726400   -0.55822600
 H                 -0.66315900    0.43576300    1.82008600
 H                  0.80233200    2.17015100    0.86588800
 N                  0.92820500   -1.56506400    0.39257900
 N                  1.51843700   -0.75664400   -0.13646700
 O                  2.09386700    0.14274100   -0.67261600
10
-355.5058145630
 C                 -0.74904700    0.74062200    0.78178200
 C                  0.04688900    1.68371400    0.25713500
 H                 -0.05490100    2.01164100   -0.77160900
 C                 -1.79420100    0.11064800    0.03311900
 N                 -2.66810400   -0.38276400   -0.55659200
 H                 -0.64342400    0.41644400    1.81352300
 H                  0.82259300    2.14925500    0.85486300
 N                  0.91194700   -1.54968200    0.39680800
 N                  1.50888200   -0.74699200   -0.13340300
 O                  2.08151700    0.15551200   -0.66712000
10
-355.5043657330
 C                 -0.73240900    0.72274600    0.77608200
 C                  0.06365400    1.66457700    0.24910700
 H                 -0.04181900    1.99374600   -0.77879200
 C                 -1.78450700    0.10058000    0.03100600
 N                 -2.66928100   -0.37779900   -0.55480400
 H                 -0.62488300    0.39799200    1.80733800
 H                  0.84168500    2.12928800    0.84428200
 N                  0.89544800   -1.53378700    0.40124300
 N                  1.50054600   -0.73837000   -0.13072600
 O                  2.06876100    0.16857200   -0.66151800
10
-355.5026728340
 C                 -0.71599300    0.70476500    0.77034000
 C                  0.08024100    1.64543400    0.24111000
 H                 -0.02858100    1.97558500   -0.78603900
 C                 -1.77491500    0.09050400    0.02878800
 N                 -2.67047300   -0.37252300   -0.55287200
 H                 -0.60765700    0.38055600    1.80156700
 H                  0.85952800    2.11038300    0.83426800
 N                  0.87857900   -1.51720200    0.40589100
 N                  1.49386200   -0.73120800   -0.12860300
 O                  2.05542300    0.18200800   -0.65571500
10
-355.5007000730
 C                 -0.69981400    0.68671100    0.76455000
 C                  0.09665400    1.62639900    0.23317300
 H                 -0.01539900    1.95754600   -0.79321100
 C                 -1.76566400    0.08069400    0.02655200
 N                 -2.67159500   -0.36711900   -0.55084000
 H                 -0.59196200    0.36443300    1.79631600
 H                  0.87594200    2.09280900    0.82498000
 N                  0.86126800   -1.49976000    0.41073300
 N                  1.48928100   -0.72596100   -0.12720600
 O                  2.04132600    0.19586000   -0.64961200
10
-355.4984102430
 C                 -0.68389500    0.66861900    0.75873000
 C                  0.11288400    1.60762100    0.22532200
 H                 -0.00257000    1.94010400   -0.80014700
 C                 -1.75700300    0.07143900    0.02440700
 N                 -2.67258200   -0.36178400   -0.54877900
 H                 -0.57807900    0.35003900    1.79173800
 H                  0.89066900    2.07695600    0.81659200
 N                  0.84356700   -1.48136100    0.41570000
 N                  1.48712500   -0.72297900   -0.12666300
 O                  2.02634700    0.21008000   -0.64312100
10
-355.4957713670
 C                 -0.66826000    0.65051200    0.75291600
 C                  0.12893500    1.58926400    0.21757200
 H                  0.00955800    1.92375800   -0.80668100
 C                 -1.74913300    0.06298100    0.02245300
 N                 -2.67339600   -0.35668800   -0.54676500
 H                 -0.56626900    0.33780300    1.78799400
 H                  0.90345300    2.06322100    0.80924000
 N                  0.82564500   -1.46201200    0.42068200
 N                  1.48746200   -0.72238500   -0.12700100
 O                  2.01046300    0.22452700   -0.63619500
10
-355.4927691910
 C                 -0.65291800    0.63237900    0.74715800
 C                  0.14484700    1.57145400    0.20990800
 H                  0.02066300    1.90894000   -0.81267700
 C                 -1.74216000    0.05546000    0.02075800
 N                 -2.67403000   -0.35194900   -0.54486300
 H                 -0.55669100    0.32804500    1.78518600
 H                  0.91414100    2.05187700    0.80298000
 N                  0.80773000   -1.44182000    0.42555600
 N                  1.49008000   -0.72403400   -0.12814000
 O                  1.99375400    0.23901600   -0.62884000
10
-355.4894224080
 C                 -0.63786300    0.61415800    0.74150600
 C                  0.16072400    1.55424800    0.20227800
 H                  0.03052000    1.89593000   -0.81805000
 C                 -1.73609100    0.04890600    0.01934800
 N                 -2.67449500   -0.34762200   -0.54311000
 H                 -0.54936600    0.32092200    1.78333000
 H                  0.92272300    2.04299800    0.79777400
 N                  0.79003200   -1.42097000    0.43022900
 N                  1.49455300   -0.72758000   -0.12992300
 O                  1.97635700    0.25340300   -0.62110000
10
-355.4857953710
 C                 -0.62307400    0.59575200    0.73600700
 C                  0.17672600    1.53763200    0.19459500
 H                  0.03902000    1.88484200   -0.82277100
 C                 -1.73085600    0.04326600    0.01821400
 N                 -2.67481500   -0.34370600   -0.54151800
 H                 -0.54418700    0.31642300    1.78234600
 H                  0.92931200    2.03647500    0.79351400
 N                  0.77269100   -1.39969000    0.43465200
 N                  1.50036900   -0.73258000   -0.13215200
 O                  1.95842200    0.26762100   -0.61304600
10
-355.4820039510
 C                 -0.60852400    0.57704500    0.73069700
 C                  0.19303600    1.52154600    0.18675500
 H                  0.04615500    1.87564400   -0.82684600
 C                 -1.72634700    0.03844000    0.01732800
 N                 -2.67500900   -0.34017100   -0.54007900
 H                 -0.54094600    0.31440800    1.78207700
 H                  0.93408600    2.03207000    0.79005100
 N                  0.75577300   -1.37820900    0.43882200
 N                  1.50702200   -0.73858100   -0.13463500
 O                  1.94008900    0.28168200   -0.60476000
10
-355.4782116630
 C                 -0.59418800    0.55793300    0.72559900
 C                  0.20983300    1.50591000    0.17865700
 H                  0.05197500    1.86821200   -0.83029700
 C                 -1.72244200    0.03431500    0.01665400
 N                 -2.67509800   -0.33697000   -0.53877800
 H                 -0.53938800    0.31465500    1.78231500
 H                  0.93724400    2.02947900    0.78723000
 N                  0.73928800   -1.35673500    0.44276500
 N                  1.51407600   -0.74518200   -0.13719900
 O                  1.92147300    0.29563900   -0.59632100
10
-355.4746189460
 C                 -0.58003900    0.53833500    0.72072700
 C                  0.22725700    1.49064200    0.17022000
 H                  0.05656900    1.86236400   -0.83314000
 C                 -1.71902800    0.03078500    0.01615700
 N                 -2.67509500   -0.33405700   -0.53759400
 H                 -0.53924100    0.31690400    1.78283000
 H                  0.93897400    2.02837600    0.78489800
 N                  0.72321700   -1.33544700    0.44651800
 N                  1.52117300   -0.75205100   -0.13970200
 O                  1.90267000    0.30956600   -0.58780000
10
-355.4714484800
 C                 -0.56606000    0.51821300    0.71609000
 C                  0.24541800    1.47566400    0.16138400
 H                  0.06004900    1.85789400   -0.83537700
 C                 -1.71600500    0.02775400    0.01580400
 N                 -2.67501500   -0.33139000   -0.53650900
 H                 -0.54024300    0.32087500    1.78339300
 H                  0.93945500    2.02842700    0.78291900
 N                  0.70753500   -1.31449400    0.45012100
 N                  1.52804100   -0.75892800   -0.14203800
 O                  1.88375000    0.32354400   -0.57925600
10
-355.4689291970
 C                 -0.55224600    0.49757100    0.71169100
 C                  0.26437600    1.46091300    0.15211600
 H                  0.06253900    1.85458200   -0.83699400
 C                 -1.71328900    0.02513400    0.01556400
 N                 -2.67486800   -0.32893000   -0.53550600
 H                 -0.54214800    0.32627900    1.78378700
 H                  0.93885400    2.02930300    0.78117000
 N                  0.69221400   -1.29399700    0.45360600
 N                  1.53448500   -0.76563600   -0.14412500
 O                  1.86476900    0.33765100   -0.57073800
10
-355.4672808480
 C                 -0.53854000    0.47643200    0.70748000
 C                  0.28405400    1.44633600    0.14240900
 H                  0.06422500    1.85198900   -0.83813400
 C                 -1.71079700    0.02283600    0.01541100
 N                 -2.67465300   -0.32664600   -0.53455900
 H                 -0.54464600    0.33269300    1.78377200
 H                  0.93722800    2.03078600    0.77945500
 N                  0.67724000   -1.27397200    0.45700400
 N                  1.54036300   -0.77205700   -0.14588300
 O                  1.84578100    0.35192800   -0.56226400
10
-355.4666973910
 C                 -0.52498328    0.45466803    0.70357353
 C                  0.30504772    1.43184903    0.13212253
 H                  0.06500972    1.85039803   -0.83810147
 C                 -1.70854428    0.02088803    0.01531053
 N                 -2.67437528   -0.32452997   -0.53369947
 H                 -0.54750828    0.33993603    1.78285253
 H                  0.93488772    2.03200003    0.77781553
 N                  0.66263672   -1.25494597    0.46033753
 N                  1.54502072   -0.77779297   -0.14701647
 O                  1.82691272    0.36666503   -0.55406047
10
-355.4673205730
 C                 -0.51142700    0.43290400    0.69966700
 C                  0.32604100    1.41736200    0.12183600
 H                  0.06579400    1.84880700   -0.83806900
 C                 -1.70629200    0.01894000    0.01521000
 N                 -2.67409700   -0.32241400   -0.53284000
 H                 -0.55037000    0.34717900    1.78193300
 H                  0.93254700    2.03321400    0.77617600
 N                  0.64803300   -1.23592000    0.46367100
 N                  1.54967800   -0.78352900   -0.14814900
 O                  1.80804400    0.38140200   -0.54585700
10
-355.4692268300
 C                 -0.49791400    0.41065400    0.69597600
 C                  0.34816200    1.40285900    0.11108800
 H                  0.06603400    1.84767700   -0.83694200
 C                 -1.70415400    0.01718000    0.01512600
 N                 -2.67376200   -0.32039200   -0.53200700
 H                 -0.55297100    0.35439300    1.77989800
 H                  0.92996300    2.03355700    0.77444700
 N                  0.63374100   -1.21788000    0.46695400
 N                  1.55294800   -0.78844200   -0.14859700
 O                  1.78937600    0.39663000   -0.53800700
10
-355.4723991980
 C                 -0.48428400    0.38819300    0.69227400
 C                  0.37061700    1.38829800    0.10014600
 H                  0.06625900    1.84594900   -0.83539300
 C                 -1.70196000    0.01536600    0.01500800
 N                 -2.67337100   -0.31838100   -0.53114800
 H                 -0.55495500    0.36101600    1.77695000
 H                  0.92713000    2.03317400    0.77246100
 N                  0.61956800   -1.20023600    0.47023200
 N                  1.55531400   -0.79290800   -0.14853100
 O                  1.77094000    0.41218400   -0.53039700
10
-355.4767187880
 C                 -0.47040500    0.36554200    0.68848200
 C                  0.39329100    1.37361200    0.08912200
 H                  0.06657100    1.84354000   -0.83340100
 C                 -1.69963800    0.01340500    0.01482900
 N                 -2.67292300   -0.31632400   -0.53024600
 H                 -0.55594700    0.36652200    1.77308700
 H                  0.92438900    2.03173200    0.77021900
 N                  0.60541700   -1.18291800    0.47351200
 N                  1.55666000   -0.79681200   -0.14791100
 O                  1.75280900    0.42801800   -0.52309300
10
-355.4819619310
 C                 -0.45613700    0.34263700    0.68450800
 C                  0.41596500    1.35882200    0.07812900
 H                  0.06701200    1.84026800   -0.83102900
 C                 -1.69709200    0.01117600    0.01456700
 N                 -2.67240700   -0.31416000   -0.52927200
 H                 -0.55565800    0.37049300    1.76833400
 H                  0.92178700    2.02915400    0.76777800
 N                  0.59116400   -1.16577200    0.47680600
 N                  1.55688900   -0.80008300   -0.14669400
 O                  1.73512600    0.44404800   -0.51616600
10
-355.4878087300
 C                 -0.44132200    0.31934400    0.68025500
 C                  0.43835900    1.34402900    0.06728800
 H                  0.06751100    1.83603000   -0.82835300
 C                 -1.69419400    0.00852500    0.01419700
 N                 -2.67180400   -0.31181100   -0.52818700
 H                 -0.55381800    0.37252600    1.76272500
 H                  0.91929100    2.02544100    0.76524500
 N                  0.57665600   -1.14859600    0.48011900
 N                  1.55589600   -0.80265500   -0.14482300
 O                  1.71808900    0.46014200   -0.50970800
10
-355.4938564140
 C                 -0.42579800    0.29544900    0.67562700
 C                  0.46009700    1.32945300    0.05674800
 H                  0.06785100    1.83082700   -0.82544300
 C                 -1.69077000    0.00523900    0.01369200
 N                 -2.67108500   -0.30916200   -0.52693700
 H                 -0.55019400    0.37222600    1.75629900
 H                  0.91677200    2.02068800    0.76279900
 N                  0.56169700   -1.13113700    0.48344400
 N                  1.55355800   -0.80448800   -0.14221700
 O                  1.70198800    0.47611600   -0.50386000
10
-355.4996368380
 C                 -0.40941800    0.27067300    0.67053000
 C                  0.48064200    1.31547500    0.04669900
 H                  0.06762500    1.82479000   -0.82235500
 C                 -1.68655600    0.00097900    0.01300900
 N                 -2.67019700   -0.30602600   -0.52543800
 H                 -0.54460700    0.36915800    1.74909700
 H                  0.91398400    2.01509500    0.76070200
 N                  0.54604000   -1.11309200    0.48675400
 N                  1.54972100   -0.80557400   -0.13874900
 O                  1.68725000    0.49172100   -0.49884000
10
-355.5046370980
 C                 -0.39215600    0.24478900    0.66489000
 C                  0.49922400    1.30268700    0.03738100
 H                  0.06616700    1.81818500   -0.81914200
 C                 -1.68110700   -0.00487200    0.01206900
 N                 -2.66905000   -0.30205900   -0.52353700
 H                 -0.53701500    0.36280700    1.74119100
 H                  0.91050100    2.00900700    0.75930200
 N                  0.52941600   -1.09418300    0.48996600
 N                  1.54418100   -0.80596400   -0.13421200
 O                  1.67450500    0.50663800   -0.49497700
10
-355.5083180410
 C                 -0.37439600    0.21799500    0.65871000
 C                  0.51470600    1.29193500    0.02904200
 H                  0.06242900    1.81142300   -0.81590900
 C                 -1.67352400   -0.01367700    0.01066800
 N                 -2.66748600   -0.29645500   -0.52091500
 H                 -0.52782600    0.35265000    1.73278000
 H                  0.90552300    2.00301300    0.75895400
 N                  0.51164300   -1.07442500    0.49286500
 N                  1.53668900   -0.80582200   -0.12824000
 O                  1.66459600    0.52052700   -0.49274700
10
-355.5101848450
 C                 -0.35889100    0.19325400    0.65244400
 C                  0.52441100    1.28487300    0.02157300
 H                  0.05402800    1.80471500   -0.81363700
 C                 -1.66083000   -0.03078100    0.00770400
 N                 -2.66524700   -0.28547800   -0.51638900
 H                 -0.52000900    0.33919800    1.72458700
 H                  0.89641900    1.99865000    0.75938300
 N                  0.49400900   -1.05632400    0.49480000
 N                  1.52712000   -0.80591500   -0.11978500
 O                  1.65862500    0.53338900   -0.49293200
10
-355.5105732270
 C                 -0.35431500    0.17878000    0.64960100
 C                  0.51773000    1.28091100    0.01392600
 H                  0.03764100    1.79165900   -0.82161500
 C                 -1.64925900   -0.05506000    0.00202400
 N                 -2.66909800   -0.25942500   -0.51239000
 H                 -0.52349800    0.33060400    1.71999100
 H                  0.87659400    2.00240500    0.75102900
 N                  0.49508600   -1.05369800    0.49964900
 N                  1.52891800   -0.80464800   -0.11271000
 O                  1.65487800    0.54035000   -0.49342000
10
-355.5107003090
 C                 -0.35430100    0.16285000    0.64605200
 C                  0.50268000    1.27234100    0.00202700
 H                  0.01723000    1.76337200   -0.84250200
 C                 -1.65179400   -0.06638100    0.00252300
 N                 -2.67992500   -0.23053000   -0.51105800
 H                 -0.52103100    0.31678600    1.71666500
 H                  0.84497800    2.01006600    0.73111000
 N                  0.50880300   -1.06019100    0.50120500
 N                  1.54440200   -0.79953800   -0.10383600
 O                  1.65511600    0.54531500   -0.48971100
10
-355.5107479310
 C                 -0.35446100    0.15415800    0.63700400
 C                  0.49380100    1.26670800   -0.01404600
 H                  0.01296600    1.73091100   -0.87625200
 C                 -1.65805000   -0.07031800    0.00497600
 N                 -2.69221100   -0.21750100   -0.50031600
 H                 -0.51198000    0.30720700    1.70940900
 H                  0.81025300    2.02545800    0.70430700
 N                  0.51128200   -1.06592200    0.48807400
 N                  1.55526300   -0.79657700   -0.09829800
 O                  1.66757700    0.55173000   -0.47117500
